                                                    
********************************************************************************
* application ranges:
* geometry range:
*
* for vcc=1.0 v n-ch mosfet:
* 0.06 um <= ldes <= 1 um
* 0.08 um <= wdes <= 10 um
*
* for vcc=1.0 v p-ch mosfet:
* 0.06 um <= ldes <= 1 um
* 0.08 um <= wdes <= 10 um
*
*
* voltage range:
* for n-ch mosfet:
* 0v <= vgs <= 1.0v(*1.1) 
* 0v <= vds <= 1.0v(*1.1) 
* -1.0v <= vbs <= 0v
*
* for p-ch mosfet:
* 0v >= vgs >= -1.0v(*1.1)
* 0v >= vds >= -1.0v(*1.1) 
* 1.0v >= vbs >= 0v
*
*
* for vcc=1.1 v n-ch mosfet:
* 0.06 um <= ldes <= 1 um
* 0.08 um <= wdes <= 10 um
*
* for vcc=1.1 v p-ch mosfet:
* 0.06 um <= ldes <= 1 um
* 0.08 um <= wdes <= 10 um
*
*
* voltage range:
* for n-ch mosfet:
* 0v <= vgs <= 1.1v(*1.1) 
* 0v <= vds <= 1.1v(*1.1) 
* -1.1v <= vbs <= 0v
*
* for p-ch mosfet:
* 0v >= vgs >= -1.1v(*1.1)
* 0v >= vds >= -1.1v(*1.1) 
* 1.1v >= vbs >= 0v
*
* temperature range: -55c ~ 125c ; nominal temperature=25c
********************************************************************************

*device 1
.model n_11_sprvt nmos
*****model selectors/controllers*********************************
+  level     =   5.4000e+01                          version   =   4.5000e+00                        
+  binunit   =   1.0000e+00                          paramchk  =   1.0000e+00                        
+  mobmod    =   0.0000e+00                          capmod    =   2.0000e+00                        
+  igcmod    =   1.0000e+00                          igbmod    =   1.0000e+00                        
+  geomod    =   0.0000e+00                          diomod    =   2.0000e+00                        
+  rdsmod    =   0.0000e+00                          rbodymod  =   0.0000e+00                        
+  rgatemod  =   0.0000e+00                          permod    =   1.0000e+00                        
+  acnqsmod  =   0.0000e+00                          trnqsmod  =   0.0000e+00                        
+  fnoimod   =   1.0000e+00                          tnoimod   =   0.0000e+00                        
+  rgeomod   =   1.0000e+00


*****process parameters******************************************
+  toxe      =   2.0000e-09        				 toxp      =  1.6028e-09    
+  toxm      =   2.0500e-09                          epsrox    =   3.9000e+00                        
+  xj        =   9.0000e-08                          ngate     =   1.3000e+20                        
+  ndep      =   3.4700e+17                          nsd       =   1.0000e+20                        
+  rsh       =   1.3000e+01                          rshg      =   1.0000e-01                        


*****basic model parameters**************************************
+  wint      =   1.1870e-08                          lint      =   6.2763e-09                        
+  vth0      =  -0.9865e-02         k1        =   1.1297e-01                        
+  k2        =   3.6600e-02                          k3        =   0.0000e+00        
+  k3b       =   2.0298e+01                          w0        =   2.7975e-06                        
+  dvt0      =   1.0730e+00                          dvt1      =   3.7600e-01                        
+  dvt2      =  -2.0000e-02                          dvt0w     =   7.2815e-02                        
+  dvt1w     =   5.8885e+06                          dvt2w     =   1.5336e-01                        
+  dsub      =   4.4832e-02                          minv      =   6.6106e-01                        
+  voffl     =  -5.7352e-09        dvtp0     =   7.8000e-06                        
+  dvtp1     =  -4.6234e-01                          lpe0      =   1.4150e-07       
+  lpeb      =   1.8969e-08                          phin      =   8.7670e-02                        
+  cdsc      =   1.1568e-03                          cdscb     =   1.3975e-04                        
+  cdscd     =   8.2385e-04                          cit       =   5.7610e-05                        
+  voff      =  -3.1897e-02                          nfactor   =   9.3390e-01                     
+  eta0      =   4.0300e-04                          etab      =  -7.6817e-04                        
+  vfb       =  -1.0000e+00                          u0        =   1.8460e-02         
+  ua        =  -1.4840e-09                          ub        =   2.3829e-18                        
+  uc        =   7.1105e-11                          eu        =   1.6700e+00                        
+  vsat      =   1.4663e+05         a0        =   1.1382e+01                        
+  ags       =   9.7563e-01                          a1        =   0.0000e+00                        
+  a2        =   1.0000e+00                          b0        =   2.5000e-06                        
+  b1        =   8.0000e-06                          keta      =  -1.2419e-01                        
+  dwg       =   3.7038e-09                          dwb       =   2.2760e-09                        
+  pclm      =   3.4853e-01                          pdiblc1   =   3.5000e-03                        
+  pdiblc2   =   6.0094e-03                          pdiblcb   =   4.9945e+00                        
+  drout     =   5.9500e-01                          pvag      =   1.0000e+01                        
+  delta     =   1.5186e-02                          pscbe1    =   6.5350e+09                        
+  pscbe2    =   1.1470e-04                          fprout    =   5.8464e+02                        
+  pdits     =   3.3415e-01                          pditsd    =   3.7447e-01                        
+  pditsl    =   4.1298e+05                          ud        =   0.0000e+00


*****parameters for asymmetric and bias-dependent rds model******
+  rdsw      =   8.5300e+01         rsw       =   1.0000e+02                        
+  rdw       =   1.0000e+02                          rdswmin   =   5.5000e+01                        
+  rdwmin    =   0.0000e+00                          rswmin    =   0.0000e+00                        
+  prwg      =   8.4608e-01                          prwb      =   7.7210e-02                        
+  wr        =   1.0000e+00                        


*****impact ionization current model parameters******************
+  alpha0    =   3.0000e-07                          alpha1    =   4.0000e+00                        
+  beta0     =   1.5000e+01                        


*****gate-induced drain leakage model parameters*****************
+  agidl     =   2.8340e-08                          bgidl     =   1.7770e+09                        
+  cgidl     =   1.0200e-01                          egidl     =   6.8792e-01                        


*****gate dielectric tunneling current model parameters**********
+  toxref    =   1.9500e-09                          dlcig     =   7.5475e-08                        
+  aigbacc   =   1.1268e-02                          bigbacc   =   2.5600e-03                        
+  cigbacc   =   3.0970e-02                          nigbacc   =   2.8259e+00                        
+  aigbinv   =   1.5116e-02                          bigbinv   =   4.9005e-03                        
+  cigbinv   =   1.0395e-03                          eigbinv   =   1.1055e+00                        
+  nigbinv   =   2.0320e+00                          aigc      =   1.1232e-02                        
+  bigc      =   2.3106e-03                          cigc      =   2.7219e-02                        
+  aigsd     =   1.0531e-02                          bigsd     =   1.1879e-03                        
+  cigsd     =   9.1200e-02                          nigc      =   4.0124e-01                        
+  poxedge   =   1.1220e+00                          pigcd     =   1.2500e+00                        
+  ntox      =   1.0000e+00                        


*****charge and capacitance model parameters*********************
+  dlc       =   8.7252e-09                          dwc       =  -3.2000e-10                        
+  xpart     =   1.0000e+00                          cgso      =   5.2000e-11       
+  cgdo      =   5.2000e-11         cgbo      =   0.0000e+00                        
+  cgdl      =   1.0000e-10         cgsl      =   1.0000e-10       
+  clc       =   1.0000e-07                          cle       =   6.0000e-01                        
+  cf        =   5.0000e-11                                   
+  ckappad   =   2.7000e+00                          vfbcv     =  -1.0000e+00                        
+  acde      =   3.0000e-02                          moin      =   1.1470e+01                        
+  noff      =   2.4886e+00                          voffcv    =  -2.7750e-02                        
+  ckappas   =   2.7000e+00 

*****high-speed/rf model parameters******************************


*****flicker and thermal noise model parameters******************

+  ef        =   0.9800e+00                          noia      =   2.4075e+40     
+  noib      =   3.2132e+26                          noic      =   1.4315e+08     
+  em        =   4.1000e+07                          ntnoi     =   1.0000e+00     
                                                                               
                                                                               
*****layout-dependent parasitics model parameters****************              
+  xl        =  -2.0000e-08           xw        =   0.0000e+00         
+  dmcg      =   1.0000e-07                          dmci      =   6.0000e-08                        
+  dmdg      =   0.0000e+00                          dmcgt     =   0.0000e+00                        
+  dwj       =   0.0000e+00                          xgw       =   0.0000e+00                        
+  xgl       =   0.0000e+00                          ngcon     =   1.0000e+00                        


*****asymmetric source/drain junction diode model parameters*****
+  jss       =   8.6893e-07                          jsws      =   1.5206e-13                        
+  ijthsfwd  =   1.6542e-03                          ijthsrev  =   9.6305e-04                        
+  bvs       =   1.0390e+01                          xjbvs     =   1.0000e+00                        
+  pbs       =   5.9993e-01                          cjs       =   1.1000e-03        
+  mjs       =   3.1446e-01                          pbsws     =   1.0000e-01                        
+  cjsws     =   2.5000e-11        mjsws     =   1.0000e-03                        
+  pbswgs    =   1.8713e+00                          cjswgs    =   2.6000e-10     
+  mjswgs    =   9.8900e-01                        


*****temperature dependence parameters***************************
+  tnom      =   2.5000e+01                          kt1       =  -3.9572e-01                        
+  kt1l      =  -6.2555e-10                          kt2       =  -4.7811e-02                        
+  ute       =  -1.1715e+00                          ua1       =   2.5194e-09                        
+  ub1       =  -2.8432e-18                          uc1       =   0.0000e+00                        
+  prt       =   0.0000e+00                          at        =   9.7487e+04                        
+  njs       =   1.0870e+00                          tpb       =   1.0709e-03                        
+  tcj       =   8.9915e-04                          tpbsw     =   7.2802e-20                        
+  tcjsw     =  -7.0679e-04                          tpbswg    =  -5.2746e-05                        
+  tcjswg    =   6.2166e-04                          xtis      =   3.0000e+00                        


*****dw and dl parameters****************************************
+  ll        =  -1.1315e-16                          wl        =   8.4451e-16                        
+  lln       =   1.0000e+00                          wln       =   9.0000e-01                        
+  lw        =  -1.3682e-15                          ww        =  -2.8268e-13                        
+  lwn       =   1.0000e+00                          wwn       =   6.8768e-01                        
+  lwl       =   3.3784e-23                          wwl       =  -2.0000e-21        
+  llc       =  -4.4335e-17                          wlc       =  -4.9400e-15                        
+  lwc       =   0.0000e+00                          wwc       =  -1.2921e-14                        
+  lwlc      =   0.0000e+00                          wwlc      =   0.0000e+00                        


*****range parameters for model application**********************
+  lmin      =   6.0000e-08                          lmax      =   1.0000e-06                        
+  wmin      =   8.0000e-08                          wmax      =   1.0000e-05                        


*****other parameters********************************************
+  lk3       =   2.6231e+00                          wk3       =  -2.9000e+00        
+  pk3       =  -2.0000e-02                          wk3b      =   2.1368e+00                        
+  pdvt0w    =   7.0000e-04                          lminv     =  -3.6985e-02                         
+  pminv     =  -1.2236e-03                          wdvtp1    =  -7.2450e-02                        
+  llpe0     =   2.2371e-08                          wlpe0     =  -1.6500e-09                        
+  plpe0     =   1.0000e-10                          llpeb     =   8.9529e-09                        
+  wlpeb     =  -1.0000e-08                          plpeb     =   4.4000e-10                        
+  pvoff     =  -1.3100e-04                          lnfactor  =   5.3684e-02                       
+  wnfactor  =  -5.8950e-02                          pnfactor  =   6.0000e-03                        
+  leta0     =   6.4997e-06                          weta0     =   2.4121e-05                        
+  letab     =   1.8331e-05                          wetab     =   4.3152e-06                        
+  lvsat     =   1.5180e+03                          wvsat     =   2.2300e+03                        
+  la0       =  -4.0289e-01                          lags      =   4.3334e-01                        
+  wags      =   2.4022e-02                          pags      =   1.0000e-02                        
+  lketa     =   4.5027e-03                          wketa     =  -1.7400e-04                        
+  wpclm     =   3.5615e-02                          wpditsd   =  -5.0100e-02                        
+  laigbacc  =   8.0000e-05                          laigbinv  =  -2.6000e-04                        
+  lbigbinv  =  -1.6400e-04                          leigbinv  =  -5.0000e-03                        
+  laigc     =  -2.4847e-06                          lcigc     =  -2.1467e-03                        
+  lvoffcv   =  -4.0000e-03                          wkt1      =   0.0022e+00                        
+  pkt1      =  -1.2720e-04                          wkt1l     =   1.0000e-10                        
+  lkt2      =   1.5000e-03                          wkt2      =   1.3100e-03                        
+  lute      =   9.6100e-03                          wua1      =  -6.6243e-11                        
+  lat       =  -5.7750e+02                          wat       =   5.4212e+03                        
+  pat       =  -9.2800e+01                          pvth0     =   0.0000e+00 
+  saref     =   1.7600e-06                          sbref     =   1.7600e-06                        
+  wlod      =   0.0000e+00                          kvth0     =   6.5000e-09                        
+  lkvth0    =   1.3000e-07                          wkvth0    =   9.0000e-08                        
+  pkvth0    =   1.5000e-13                          llodvth   =   1.0000e+00                        
+  wlodvth   =   1.0000e+00                          stk2      =   0.0000e+00                        
+  lodk2     =   1.0000e+00                          lodeta0   =   1.0000e+00                        
+  ku0       =  -9.5000e-08                          lku0      =   2.4000e-06                        
+  wku0      =   1.0000e-06                          pku0      =   5.0000e-13                        
+  llodku0   =   1.0500e+00                          wlodku0   =   1.0000e+00                        
+  kvsat     =   9.9000e-01                          steta0    =  -2.8000e-11                        
+  tku0      =   0.0000e+00                          wrdsw     =   8.6400e+00                   
+  lintnoi   =   0.0000e+00


*****user drop parameters****************************************
+  wpemod=1
+  scref=2e-6
+  kvth0we=-6.8456e-07
+  k2we=-4.2676e-07
+  web=-6.1914e+05
+  wec=1.1986e+06
+  ku0we=1.0000e-06


.model p_11_sprvt pmos
*****model selectors/controllers*********************************
+  level     =   5.4000e+01                          version   =   4.5000e+00                        
+  binunit   =   1.0000e+00                          paramchk  =   1.0000e+00                        
+  mobmod    =   0.0000e+00                          capmod    =   2.0000e+00                        
+  igcmod    =   1.0000e+00                          igbmod    =   1.0000e+00                        
+  geomod    =   0.0000e+00                          diomod    =   2.0000e+00                        
+  rdsmod    =   0.0000e+00                          rbodymod  =   0.0000e+00                        
+  rgatemod  =   0.0000e+00                          permod    =   1.0000e+00                        
+  acnqsmod  =   0.0000e+00                          trnqsmod  =   0.0000e+00                        
+  fnoimod   =   1.0000e+00                          tnoimod   =   0.0000e+00                        
+  rgeomod   =   1.0000e+00                        


*****process parameters******************************************
+  toxe      =   2.1500e-09         toxp      =   1.6809e-09       
+  toxm      =   2.1500e-09                          epsrox    =   3.9000e+00                        
+  xj        =   9.0000e-08                          ngate     =   8.6700e+19                        
+  ndep      =   3.2400e+17                          nsd       =   1.0000e+20                        
+  rsh       =   9.0000e+00                        


*****basic model parameters**************************************
+  wint      =  -1.1768e-08                          lint      =  -4.4812e-09                        
+  vth0      =  -1.2350e-01         k1        =   1.9352e-01                        
+  k2        =   2.0000e-03                          k3        =   3.5000e+00                        
+  k3b       =  -2.6000e+01                          w0        =   1.9474e-06                        
+  dvt0      =   5.3841e+00                          dvt1      =   9.9803e-01                        
+  dvt2      =  -2.7125e-01                          dvt0w     =   5.2187e-03       
+  dvt1w     =   1.9951e+05                          dvt2w     =   1.3160e-01                        
+  dsub      =   7.6500e-01                          minv      =  -2.1000e-01                        
+  voffl     =  -6.3500e-09        dvtp0     =   6.7003e-06                        
+  dvtp1     =  -6.0000e-01                          lpe0      =   3.5400e-08       
+  lpeb      =  -9.0753e-08                          phin      =   1.2502e-01                        
+  cdsc      =   1.0000e-02                          cdscb     =   0.0000e+00                        
+  cdscd     =   7.1280e-03                          cit       =   0.0000e+00                        
+  voff      =  -1.0752e-01                          nfactor   =   1.0996e+00                        
+  eta0      =   1.1750e+00                          etab      =  -1.3000e+00                        
+  vfb       =  -1.0000e+00                          u0        =   1.1550e-02         
+  ua        =   2.3742e-10                          ub        =   1.8035e-18                        
+  uc        =   5.7265e-11                          eu        =   1.0000e+00                        
+  vsat      =   2.5300e+05                          a0        =   4.9643e+00                        
+  ags       =   1.1854e+00                          a1        =   0.0000e+00                        
+  a2        =   1.0000e+00                          b0        =   2.5306e-07                        
+  b1        =   7.8492e-06                          keta      =  -9.4396e-02                        
+  dwg       =  -1.1700e-08                          dwb       =   2.2526e-09                        
+  pclm      =   3.3000e+00                          pdiblc1   =   2.0100e-03                        
+  pdiblc2   =   2.1418e-02                          pdiblcb   =   5.0000e-01                        
+  drout     =   2.6305e-01                          pvag      =   1.3876e+01                        
+  delta     =   4.0429e-02                          pscbe1    =   6.3370e+09                        
+  pscbe2    =   3.0000e-03                          fprout    =   0.0000e+00                        
+  pdits     =   1.3549e+00                          pditsd    =   2.6506e-01                        
+  pditsl    =   8.2635e+06                        


*****parameters for asymmetric and bias-dependent rds model******
+  rdsw      =   1.5000e+02         rdswmin   =   6.0000e+01                        
+  prwg      =   0.0000e+00                          prwb      =  -8.9419e-02                        
+  wr        =   1.0000e+00                        


*****impact ionization current model parameters******************
+  alpha0    =   1.6050e-09                          alpha1    =   5.8800e-02                        
+  beta0     =   1.2000e+01                        


*****gate-induced drain leakage model parameters*****************
+  agidl     =   4.5835e-09                          bgidl     =   1.5549e+09                        
+  cgidl     =   8.4963e-04                          egidl     =   9.8923e-01                        


*****gate dielectric tunneling current model parameters**********
+  toxref    =   2.2220e-09                          dlcig     =   8.9256e-08                        
+  aigbacc   =   1.0906e-02                          bigbacc   =   5.8489e-03                        
+  cigbacc   =   4.1198e-01                          nigbacc   =   9.0482e+00                        
+  aigbinv   =   1.0612e-02                          bigbinv   =   2.3185e-03                        
+  cigbinv   =   1.8681e-03                          eigbinv   =   1.1640e+00                        
+  nigbinv   =   1.1303e+00                          aigc      =   6.6292e-03                        
+  bigc      =   1.0762e-03                          cigc      =   4.8876e-03                        
+  aigsd     =   7.7200e-03                          bigsd     =   4.8681e-04                        
+  cigsd     =   8.3669e-03                          nigc      =   1.1650e+00                        
+  poxedge   =   1.0000e+00                          pigcd     =   2.0000e+00                        
+  ntox      =   1.0000e+00                        


*****charge and capacitance model parameters*********************
+  dlc       =   7.0000e-09                          dwc       =  -8.8000e-10                        
+  xpart     =   1.0000e+00                          cgso      =   1.1000e-11       
+  cgdo      =   1.1000e-11         cgbo      =   0.0000e+00                        
+  cgdl      =   1.1200e-10         cgsl      =   1.1200e-10       
+  clc       =   1.0000e-07                          cle       =   6.0000e-01                        
+  cf        =   4.0100e-11                                  
+  ckappad   =   2.3000e+00                          acde      =   6.1435e-01                        
+  moin      =   8.5877e+00                          noff      =   2.7128e+00                        
+  voffcv    =  -6.9675e-02                        
+  ckappas   =   2.3000e+00

*****high-speed/rf model parameters******************************


*****flicker and thermal noise model parameters******************
                    
+  noia      =   2.5320e+42                          noib      =   1.5000e+25                        
+  noic      =   1.3144e+10                          em        =   4.1000e+07                        
+  ef        =   1.0100e+00                          ntnoi     =   1.0000e+00         

*****layout-dependent parasitics model parameters****************
+  xl        =  -2.0000e-08           xw        =   0.0000e+00         
+  dmcg      =   1.0000e-07                          dmci      =   6.0000e-08                        
+  dwj       =   0.0000e+00                        


*****asymmetric source/drain junction diode model parameters*****
+  jss       =   3.1282e-07                          jsws      =   9.6096e-14                        
+  jswgs     =   9.6096e-14                          ijthsfwd  =   1.6000e-03                        
+  ijthsrev  =   1.7400e-03                          bvs       =   8.8000e+00                        
+  xjbvs     =   1.0000e+00                          pbs       =   7.8000e-01                        
+  cjs       =   1.1000e-03          mjs       =   3.3320e-01                        
+  pbsws     =   9.9000e-01                          cjsws     =   3.1000e-11      
+  mjsws     =   1.0000e-01                          pbswgs    =   6.0000e-01                        
+  cjswgs    =   3.0000e-10       mjswgs    =   9.8900e-01                        


*****temperature dependence parameters***************************
+  tnom      =   2.5000e+01                          kt1       =  -3.2867e-01                        
+  kt1l      =  -8.0000e-09                          kt2       =   1.6682e-02                        
+  ute       =  -1.2088e+00                          ua1       =   4.3948e-09                        
+  ub1       =  -6.0645e-18                          uc1       =  -7.7000e-11                        
+  prt       =  -1.0000e+02                          at        =   0.0000e+00                        
+  njs       =   1.0650e+00                          tpb       =   1.6000e-03                        
+  tcj       =   7.7400e-04                          tpbsw     =   1.0000e-04                        
+  tcjsw     =   8.0000e-05                          tpbswg    =   1.7000e-03                        
+  tcjswg    =   1.9000e-03                          xtis      =   2.5000e+00                        


*****dw and dl parameters****************************************
+  ll        =  -1.5321e-16                          wl        =   3.4368e-15                        
+  lln       =   1.0000e+00                          wln       =   9.4000e-01                        
+  lw        =  -1.2455e-14                          ww        =  -4.5200e-14                        
+  lwn       =   9.0000e-01                          wwn       =   6.8040e-01                        
+  lwl       =   3.7665e-22                          wwl       =  -5.2650e-20        
+  llc       =  -4.0000e-17                          wlc       =  -8.0000e-16                        
+  lwc       =   0.0000e+00                          wwc       =  -6.4826e-15                        
+  lwlc      =   0.0000e+00                          wwlc      =  -3.8600e-20                        


*****range parameters for model application**********************
+  lmin      =   6.0000e-08                          lmax      =   1.0000e-06                        
+  wmin      =   8.0000e-08                          wmax      =   1.0000e-05                        


*****other parameters********************************************
+  lk3       =  -1.5000e+00                          wk3b      =   4.0414e+00                        
+  wk3       =   0.0000e+00          ldvt1     =  -9.6800e-03                        
+  ldsub     =   1.6500e-02                          llpe0     =   3.0358e-09                        
+  wlpe0     =  -3.7000e-09        plpe0     =   8.8500e-10                        
+  llpeb     =   8.0000e-09                          lnfactor  =   1.2000e-01                        
+  wnfactor  =  -5.6000e-02                          peta0     =   3.6000e-03                        
+  letab     =   5.0000e-02                          petab     =  -2.0000e-03                        
+  ud        =   1.3500e+17                          lu0       =   2.2690e-04                        
+  pu0       =   1.6300e-05                          pua       =  -5.4506e-12                        
+  pub       =   4.2308e-21                          puc       =  -8.9001e-13                        
+  pvsat     =  -1.0450e+03                          lags      =   4.5000e-01                        
+  lketa     =   3.4030e-03                          wketa     =   5.2800e-03                        
+  lpditsd   =   1.4549e-01                          wrdsw     =   2.5800e+01                        
+  laigbacc  =  -1.0852e-05                          laigbinv  =  -4.9713e-05                        
+  leigbinv  =  -6.2400e-03                          lnigbinv  =   3.4763e-02                        
+  laigc     =  -9.5221e-06                          laigsd    =  -5.6800e-06                        
+  lvoffcv   =  -8.2000e-04                          wkt1      =   0.0000e+00                        
+  pkt1      =   0.0000e+00                          lkt2      =   0.0000e+00                        
+  wute      =   0.0000e+00                          pute      =   0.0000e+00                        
+  saref     =   1.7600e-06                          sbref     =   1.7600e-06                        
+  kvth0     =  -1.0500e-09                          lkvth0    =  -5.0000e-07                        
+  wkvth0    =   1.0000e-06                          pkvth0    =  -1.0000e-12                        